**ABCDEFGHIJKLMNOPQRSTUVWXYZabcdefghijklmnopqrstuvwxyz**************************
**PARASOLID !"#$%&'()*+,-./:;<=>?@[\]^_`{|}~0123456789**************************
**PART1;
MC=x64/Windows NT;
MC_MODEL=genuineintel family 6 model 10 stepping 5, intel(r) xeon(r) cpu           w3550  @ 3.07ghz;
MC_ID=133-7320;
OS=windows nt (x64);
OS_RELEASE=6.1 windows 7 ultimate (build 7601) service pack 1;
FRU=mdc_ugii_v7.0_djl_can_vrh;
APPL=unigraphics;
SITE=unknown;
USER=Afonin;
FORMAT=text;
GUISE=transmit;
KEY=RealMeBladeMi8_NoTail_M1;
FILE=D:\MyFilesCur\MyPrgs\Ansys\TriesOfAeroDynHeatProj_VsO\proj_AD_heat_RealMe_abMi8_2024-04-17\RealMeBladeMi8_NoTail_M1.x_t;
DATE=17-apr-2024;
**PART2;
SCH=SCH_2900123_28101;
USFLD_SIZE=0;
**PART3;
**END_OF_HEADER*****************************************************************
T51 : TRANSMIT FILE created by modeller version 290012323 SCH_2900123_28101_1300
6203 0 10 19 CCCCCCCI4 mesh1006 0 I8 polyline1008 0 CCCCCCCCCCZ1 4 0 0 0 0 0 0 0
 0 0 1e3 1e-8 0 0 0 1 0 1 2 11 255 2 4 0 1 3 0 1 4 0 0 0 12 33 CCCCCCI4 mesh1006
 0 I8 polyline1008 0 CCCCCCCDI5 owner1040 0 CCCCCCI13 boundary_mesh1006 0 I17 bo
undary_polyline1008 0 CCCA16 index_map_offset0 0 1 dA9 index_map82 0 A17 node_id
_index_map82 0 A20 schema_embedding_map82 0 A5 child12 0 A14 lowest_node_id0 0 1
 dZ3 443 5 6 0 0 0 0 0 0 1e3 1e-8 2 7 0 1 0 3 1 8 9 10 11 0 0 12 13 14 0 0 0 0 0
 0 11 4 3 0 1 7 0 1 15 2 0 0 12 7 393 16 17 0 0 0 0 0 0 1e3 1e-8 4 18 3 1 0 3 1
 19 20 21 22 0 0 23 24 25 0 0 0 0 0 0 11 15 2 0 1 18 0 1 26 4 0 0 12 18 1366 27
 28 0 0 0 0 0 0 1e3 1e-8 15 29 7 1 0 3 1 30 31 32 33 0 0 34 35 36 0 0 0 0 0 0 11
 26 1 0 1 29 0 1 0 15 0 0 12 29 628 37 38 0 0 0 0 0 0 1e3 1e-8 26 0 18 1 0 3 1 3
9 40 41 42 0 0 43 44 45 0 0 0 0 0 0 81 255 1 37 628 46 29 47 0 0 0 48 70 11 CI9
 list_type0 0 1 uI10 notransmit0 0 1 lCCCDCCDI12 finger_index0 0 1 dI12 finger_b
lock1012 0 CZ38 0 4 T29 0 0 9 20 1 49 49 13 255 39 3 0 29 0 50 0 0 43 50 50 255
 40 82 0 51 0 0 0 -.0255828748849049 .00889449129204551 0 0 0 -1 266780443839833
5e-28 1 0 30 255 41 490 0 44 52 0 0 +.0338863693030382 .01207356945121054 0 -.35
7550796103226 .933893692133076 0 29 255 42 452 0 45 53 0 .000976463495721318 .00
836080384571854 0 19 8 CCCCCCCA5 owner12 0 Z43 1 0 29 0 0 39 V0 16 255 44 488 54
 ?55 0 56 41 0 0 29 18 255 45 449 0 57 0 58 42 ?29 17 255 57 0 59 60 61 45 62 63
 0 64 -18 58 445 0 65 45 66 53 ?29 17 65 0 67 68 69 58 70 56 0 71 -18 66 441 0 7
2 58 73 74 ?29 29 53 448 0 58 74 42 .00907423481380463 .01789632688463535 0 29 7
4 444 0 66 75 53 .0115102476087512 .01964728137169555 0 29 75 440 0 73 76 74 .02
503779210213125 .02679539580550955 0 18 73 437 0 77 66 78 75 ?29 29 76 436 0 78
 79 75 .02782788465102325 .02789784018379605 0 18 78 433 0 80 73 81 76 ?29 29 79
 432 0 81 82 76 .042413620666514 .03251804634291305 0 18 81 429 0 83 78 84 79 ?2
9 29 82 428 0 84 85 79 .0453286727964716 .0332268982878618 0 18 84 425 0 86 81 8
7 82 ?29 29 85 424 0 87 88 82 .0603606898974066 .0360779440380488 0 18 87 421 0
 89 84 90 85 ?29 29 88 420 0 90 91 85 .0602834725525595 .03657194781483055 0 18
 90 417 0 92 87 93 88 ?29 29 91 416 0 93 94 88 .0452153831513393 .03371388372476
335 0 18 93 413 0 95 90 96 91 ?29 29 94 412 0 96 97 91 .0422905304465774 .033002
6350531645 0 18 96 409 0 98 93 99 94 ?29 29 97 408 0 99 100 94 .0276491179972201
 .0283647642183108 0 18 99 405 0 55 96 101 97 ?29 29 100 404 0 101 102 97 .02484
908198706945 .02725844156298835 0 18 101 401 0 103 99 104 100 ?29 29 102 400 0 1
04 105 100 .01122663375105618 .02005904196299015 0 18 104 397 0 106 101 107 102
 ?29 29 105 396 0 107 108 102 .00877288867990389 .0182954526205986 0 18 107 393
 0 70 104 109 105 ?29 29 108 392 0 109 110 105 .000507455716446738 .008534150084
75835 0 18 109 389 0 62 107 111 108 ?29 29 110 271 0 111 112 108 .00356000891294
7705 -.00662336088885024 0 18 111 268 0 113 109 114 110 ?29 29 112 267 0 114 115
 110 .00588697020950241 -.00867104338021586 0 18 114 264 0 116 111 117 112 ?29 2
9 115 263 0 117 118 112 .0235329838930183 -.01370492509867562 0 18 117 260 0 119
 114 120 115 ?29 29 118 259 0 120 121 115 .0265117118742256 -.0140537253191167 0
 18 120 256 0 122 117 123 118 ?29 29 121 255 0 123 124 118 .04449284165874295 -.
0161599337060428 0 18 123 252 0 125 120 126 121 ?29 29 124 251 0 126 127 121 .04
74750267018202 -.01648749627674035 0 18 126 248 0 128 123 129 124 ?29 29 127 247
 0 129 130 124 .0654725016031748 -.0184472931848246 0 18 129 244 0 131 126 132 1
27 ?29 29 130 243 0 132 133 127 .0655232785880328 -.017949882421991 0 18 132 240
 0 134 129 135 130 ?29 29 133 239 0 135 136 130 .0475296469585562 -.015990489538
0829 0 18 135 236 0 137 132 138 133 ?29 29 136 235 0 138 139 133 .04454756190105
59 -.01566293874159945 0 18 138 232 0 140 135 141 136 ?29 29 139 231 0 141 142 1
36 .0265704689603431 -.01355720141646168 0 18 141 228 0 143 138 144 139 ?29 29 1
42 227 0 144 145 139 .02359083038609385 -.01320826880323686 0 18 144 224 0 146 1
41 147 142 ?29 29 145 223 0 147 148 142 .00617898664737324 -.00826481879846017 0
 18 147 220 0 149 144 150 145 ?29 29 148 219 0 150 151 145 .00392625703336999 -.
00628360471876539 0 18 150 216 0 152 147 153 148 ?29 29 151 160 0 153 154 148 -.
00025224752919349 .0055221729116179 0 18 153 157 0 155 150 156 151 ?29 29 154 15
6 0 156 157 151 .000242789535047472 .00545189983691861 0 18 156 153 0 158 153 15
9 154 ?29 29 157 69 0 160 161 154 .0914428694491925 .03844027287980145 0 18 160
 2 0 162 163 0 157 ?29 29 161 68 0 163 164 157 .0798125990411942 .03844027287980
14 0 18 163 5 0 165 166 160 161 ?29 29 164 67 0 166 167 161 .0002543173440819615
 .00553150011653305 0 18 166 9 0 60 168 163 164 ?29 29 167 66 0 168 169 164 .001
48550212849877 -.00270444830318711 0 18 168 13 0 170 171 166 167 ?29 29 169 65 0
 171 172 167 .0794558800675812 -.0193219669718787 0 18 171 17 0 173 174 168 169
 ?29 29 172 64 0 174 175 169 .0898352286870922 -.0193219669718787 0 18 174 21 0
 176 177 171 172 ?29 29 175 63 0 177 178 172 .0922587804652141 -.019819657715424
2 0 18 177 25 0 179 180 174 175 ?29 29 178 62 0 180 181 175 .0794078808614157 -.
0198196577154208 0 18 180 29 0 182 183 177 178 ?29 29 181 61 0 183 184 178 .0010
33855189726672 -.00291895947468592 0 18 183 33 0 185 186 180 181 ?29 29 184 60 0
 186 187 181 -.000240280711080106 .00560479966738093 0 18 186 37 0 188 189 183 1
84 ?29 29 187 59 0 189 190 184 .0797694234015706 .03893840525592555 0 18 189 41
 0 191 159 186 187 ?29 29 190 58 0 159 0 187 .0941495587773708 .0389384052559256
 0 18 159 45 0 192 156 189 190 ?29 17 192 0 193 194 191 159 195 196 0 197 +15 25
5 193 469 0 92 51 0 17 194 0 193 165 192 160 197 198 0 0 +17 191 0 193 192 92 18
9 199 200 0 195 +17 195 0 0 0 0 189 192 196 0 0 -16 196 46 201 ?192 202 203 204
 0 0 29 17 197 0 0 0 0 159 194 198 0 0 -16 198 49 205 ?194 206 0 207 0 0 29 81 1
 205 114 208 198 0 0 209 210 211 16 206 6 209 ?165 212 198 213 0 0 29 134 255 20
7 70 0 198 0 204 0 +214 215 30 204 71 0 196 207 216 0 +.0797694234015706 .038938
40525592555 0 1 2412666404929845e-30 0 136 255 214 5 6 3 2 5 FFF1 217 218 219 13
5 255 215 2 0 45 255 18 217 .0941495587773708 .0389384052559256 0 .0936092478652
695 .03883330266376325 0 .0930684049069537 .03873093514002705 0 .092527048479627
1 .03863130567720755 0 .0919851971427434 .03853441726299225 0 .0914428694491925
 .03844027287980145 0 127 255 2 218 6 6 128 255 2 219 0 1 134 216 72 0 203 204 2
20 0 +221 222 16 203 42 223 ?61 196 224 216 200 224 29 31 255 220 73 0 225 216 2
26 0 +.01442087238937974 .003439247557956815 0 0 0 -1 1 1224646799147352e-31 0 .
01482022355343382 136 221 3 16 3 14 6 FFF1 227 228 229 135 222 2 0 45 48 227 -.0
00240280711080106 .00560479966738093 0 -846601808137095e-19 .00665132378546911 0
 .000450097075211727 .00872121226033752 0 .002405379461147445 .0125003898125176
 0 .00594176777681244 .0161838521938678 0 .01046866699831104 .0196083950274606 0
 .01522204325463445 .02272527250808705 0 .02030655173379705 .02535817279079985 0
 .0254617858380493 .02754479542203565 0 .0306933887352697 .0295315399370655 0 .0
377824312266195 .0318776103452924 0 .04680888059669 .03420772672985875 0 .057756
516016302 .0362382892162914 0 .0687208493183623 .0378339938679719 0 .07608409479
99946 .0386189792815805 0 .0797694234015706 .03893840525592555 0 127 14 228 4 1
 1 1 1 1 1 1 1 1 1 1 1 4 128 14 229 0 .03125 .0625 .125 .1875 .25 .3125 .375 .43
75 .5 .625 .75 .875 1 16 225 38 210 ?230 200 231 220 231 231 29 134 226 74 0 232
 220 233 0 +234 235 16 232 34 236 ?237 231 238 226 239 238 29 30 233 75 0 240 22
6 241 0 +.0922587804652141 -.0198196577154242 0 -1 266737247524445e-27 0 136 234
 3 14 3 12 6 FFF1 242 243 244 135 235 2 0 45 42 242 .0794078808614157 -.01981965
77154208 0 .0760750776929116 -.01949822938172205 0 .0694150447958475 -.018853044
45131925 0 .0593982522737992 -.0178302081164977 0 .0494258500077516 -.0166913767
440595 0 .0394382804679546 -.01561846958873065 0 .03111233002323305 -.0146004514
1742466 0 .024483280791439 -.01381122638178248 0 .01948266206125575 -.0132413911
8412574 0 .01432383839768018 -.01242120373699304 0 .00914545531952281 -.01078590
161344194 0 .00426334780392454 -.00783415321563766 0 .001856737895372925 -.00465
151471820475 0 .001033855189726672 -.00291895947468592 0 127 12 243 4 1 1 1 1 1
 1 1 1 1 1 4 128 12 244 0 .125 .25 .375 .5 .625 .6875 .75 .8125 .875 .9375 1 16
 240 30 245 ?182 239 246 233 0 0 29 134 241 76 0 246 233 247 0 +248 249 16 246 2
6 250 ?179 240 251 241 0 0 29 30 247 77 0 251 241 252 0 +.0794558800675812 -.019
3219669718787 0 1 0 0 136 248 5 6 3 2 5 FFF1 253 254 255 135 249 2 0 45 18 253 .
0898352286870922 -.0193219669718787 0 .0903210261871535 -.01941610956827045 0 .0
908063001446447 -.0195129539029415 0 .0912910305331457 -.0196124959973116 0 .091
7751973224743 -.0197147319082832 0 .0922587804652141 -.0198196577154242 0 127 2
 254 6 6 128 2 255 0 1 16 251 22 256 ?176 246 257 247 0 0 29 134 252 78 0 257 24
7 258 0 +259 260 16 257 18 261 ?262 251 263 252 264 263 29 31 258 79 0 265 252 2
66 0 +.01442087238937974 .003439247557956815 0 0 0 1 1 0 0 .01432022355343382 13
6 259 3 14 3 12 6 FFF1 267 268 269 135 260 2 0 45 42 267 .00148550212849877 -.00
270444830318711 0 .00228055857824781 -.004378416186403655 0 .00459975790169947 -
.00744814924332845 0 .00934567188442661 -.01032253787115354 0 .01443219674845276
 -.0119314880461136 0 .0195423254933527 -.01274483086502442 0 .02454059248090315
 -.01331455449733938 0 .0311737187546934 -.01410420863845174 0 .0394943468398110
5 -.0151216220031058 0 .0494805331868097 -.0161943780816656 0 .0594535485018405
 -.0173332661404802 0 .0694630423058386 -.0183553437384405 0 .076123518845387 -.
0190005812611789 0 .0794558800675812 -.0193219669718787 0 127 12 268 4 1 1 1 1 1
 1 1 1 1 1 4 128 12 269 0 .0625 .125 .1875 .25 .3125 .375 .5 .625 .75 .875 1 16
 265 14 270 ?271 264 272 258 272 272 29 134 266 80 0 273 258 213 0 +274 275 16 2
73 10 276 ?277 272 278 266 212 278 29 30 213 81 0 206 266 279 0 +.09144286944919
24 .0384402728798014 0 -1 0 0 136 274 3 16 3 14 6 FFF1 280 281 282 135 275 2 0 4
5 48 280 .0798125990411942 .0384402728798014 0 .0761338372924276 .03812141608763
355 0 .0687843840372151 .03733793397182045 0 .0578365622467487 .0357446300603698
 0 .0469145046791489 .03371860182614805 0 .03792193760860805 .0313970573166753 0
 .030861215419561 .0290603643069864 0 .02564834605307675 .02708085783519465 0 .0
2051428936367795 .024902733941342 0 .01547771204852605 .0222945312546057 0 .0107
5705818226914 .0191996700281903 0 .00626434610251315 .01579983444439725 0 .00280
895413426143 .01219252651928156 0 .00092123736171585 .00854153510081847 0 .00040
46307976051705 .00654233496021261 0 .0002543173440819615 .00553150011653305 0 12
7 14 281 4 1 1 1 1 1 1 1 1 1 1 1 1 4 128 14 282 0 .125 .25 .375 .5 .5625 .625 .6
875 .75 .8125 .875 .9375 .96875 1 30 279 163 0 202 213 283 0 +.02460328619157775
 .001993801191555885 0 .990074128481921 -.1405461493985676 0 16 202 161 284 ?158
 285 196 279 0 0 29 30 283 274 0 285 279 286 0 +.02917700130915515 .008469173609
05521 0 .1175169031063042 .993070882406842 0 16 285 272 287 ?143 288 202 283 0 0
 29 30 286 279 0 288 283 289 0 +.0469918585022944 .00653731528915187 0 .10944084
13550642 .993993310965167 0 16 288 277 290 ?140 291 285 286 0 0 29 30 289 284 0
 291 286 292 0 +.0499699281394891 .00621439302254685 0 .1092406995193744 .994015
326626566 0 16 291 282 293 ?137 294 288 289 0 0 29 30 292 289 0 294 289 295 0 +.
0678234391960764 .00458246458370509 0 .1015548290381116 .994829943607972 0 16 29
4 287 296 ?134 297 291 292 0 0 29 30 295 294 0 297 292 298 0 +.0209223648951457
 .01224472066560516 0 .583692086483075 .811975090859956 0 16 297 292 299 ?149 30
0 294 295 0 0 29 30 298 299 0 300 295 301 0 +.0261573867799612 .0088275768108208
1 0 .115689818004863 .993285390011351 0 16 300 297 302 ?146 303 297 298 0 0 29 3
0 301 304 0 303 298 304 0 +.0231337683070848 .01153456308417696 0 .7331241507839
16 .68009483128264 0 16 303 302 305 ?152 306 300 301 0 0 29 30 304 455 0 306 301
 307 0 +.03137168294960985 .0112536677060258 0 .3774029578964995 -.9260491387453
33 0 16 306 453 308 ?77 309 303 304 0 0 29 30 307 460 0 309 304 310 0 +.02106159
05667187 .0057803056265292 0 .567246329052387 -.823548178418598 0 16 309 458 311
 ?72 63 306 307 0 0 29 30 310 465 0 63 307 312 0 +.0224519495367179 .00042342004
87161345 0 -.937983262894438 .3466805424737655 0 16 63 463 313 ?62 314 309 310 0
 0 29 30 312 470 0 314 310 315 0 +.0636789293900321 .0148492553614594 0 .1544339
826067865 -.988003109821121 0 16 314 468 316 ?89 317 63 312 0 0 29 30 315 475 0
 317 312 318 0 +.049684859948254 .01450144560372064 0 -.2265840934098185 .973991
606028333 0 16 317 473 319 ?95 320 314 315 0 0 29 30 318 480 0 320 315 52 0 +.04
70304170268036 .01434237426991892 0 .2461915497734255 -.969221192927682 0 16 320
 478 321 ?83 56 317 318 0 0 29 30 52 485 0 56 318 41 0 +.01939700544236195 .0042
240639087839 0 -.602558685350828 .79807457715948 0 16 56 483 322 ?70 44 320 52 0
 0 29 81 1 322 520 208 56 0 0 321 54 323 17 70 0 324 325 326 107 65 56 0 327 +15
 324 162 0 326 328 0 17 325 0 324 72 70 104 327 329 0 0 +17 326 0 324 70 72 58 3
30 331 0 0 +17 327 0 0 0 0 107 325 329 0 69 -16 329 394 332 ?325 224 333 216 224
 333 29 17 69 0 67 65 62 107 334 224 0 0 +15 67 484 0 65 335 0 17 62 0 67 69 68
 109 57 63 0 334 +17 334 0 0 0 0 109 69 224 0 61 -16 224 390 336 ?69 203 329 216
 203 329 29 81 1 336 528 208 224 0 0 337 338 339 80 255 1 208 340 341 9000 1 1 1
 1 1 1 1 1 0 FFFFTFTFFFFFFF3 81 1 337 527 208 342 0 0 343 336 344 81 1 338 529 2
08 200 0 0 336 345 346 84 255 32 339 966be469f2f466fa529150d478b2069516 200 418
 338 ?191 347 225 216 347 203 29 81 1 345 530 208 348 0 0 338 349 350 84 32 346
 729ef388f6519d261cedf5634577c07516 348 434 345 ?351 342 352 266 342 352 29 81 1
 349 531 208 353 0 0 345 354 355 84 32 350 1f15babc2fa559c94de7e57a2a8d853516 35
3 446 349 ?68 331 212 266 331 212 29 81 1 354 532 208 333 0 0 349 356 357 84 32
 355 232246bc0012f5c5de3e3fa290c0e8d016 333 398 354 ?358 329 359 216 329 359 29
 81 1 356 533 208 51 0 360 354 361 362 84 32 357 94a604e863b853ea5cefe398d13e381
014 255 51 52 363 ?0 364 193 39 40 -50 364 0 364 39 81 3 360 595 365 51 356 363
 366 367 368 369 0 81 1 361 534 208 370 0 367 356 371 372 84 32 362 1706945ae87e
83931c4541b5383fa61e14 370 456 373 ?374 375 376 39 40 -374 375 374 375 39 81 3 3
67 596 365 370 361 373 360 377 378 379 0 81 1 371 535 208 375 0 380 361 381 382
 84 32 372 6f56fae6b9d0c879eca69057855cb97814 375 461 383 ?370 335 59 39 40 -370
 335 370 335 39 81 3 380 598 365 375 371 383 377 384 385 386 0 81 1 381 536 208
 335 0 384 371 387 388 84 32 382 5c23f57a2b941036cb7ca5ca50fa7ac914 335 466 389
 ?375 390 67 39 40 -375 390 375 390 39 81 3 384 599 365 335 381 389 380 391 392
 393 0 81 1 387 537 208 390 0 391 381 394 395 84 32 388 eb25c064a569b0daed0b3d28
10876ebf14 390 471 396 ?335 397 398 39 40 -335 397 335 397 39 81 3 391 600 365 3
90 387 396 384 399 400 401 0 81 1 394 538 208 397 0 399 387 402 403 84 32 395 2d
d1b89f80b58f8e05687346504f25c914 397 476 404 ?390 405 406 39 40 -390 405 390 405
 39 81 3 399 601 365 397 394 404 391 407 408 409 0 81 1 402 539 208 405 0 407 39
4 410 411 84 32 403 652f104c16c8d29591d8892f98cded6b14 405 481 412 ?397 328 413
 39 40 -397 328 397 328 39 81 3 407 602 365 405 402 412 399 414 415 416 0 81 1 4
10 540 208 328 0 414 402 417 418 84 32 411 642a157cfb0fb90a197c5f4591af297614 32
8 486 419 ?405 50 324 39 40 -405 50 405 50 39 81 3 414 603 365 328 410 419 407 0
 420 421 0 81 1 417 541 208 50 0 377 410 0 422 84 32 418 470b30caff45ed927fff6c5
52fb2d19f14 50 491 423 ?328 0 424 39 40 -328 51 328 0 39 81 3 377 597 365 50 417
 423 367 380 425 426 0 84 32 422 4372e54b2d3baaa240dda8e5446381ac80 3 365 427 42
8 9000 0 0 0 0 3 6 0 0 0 FFFFTFTTFFFFFF1 1 3 81 1 423 611 429 50 377 0 0 419 430
 82 255 1 425 3 82 1 426 735 80 1 429 0 431 8001 0 0 0 0 3 5 0 0 0 FFFFTFTFFFFFF
F2 81 1 419 612 429 328 414 0 423 412 432 83 255 3 430 .5019608 .6352941 .705882
4 81 1 412 613 429 405 407 0 419 404 433 83 3 432 .5019608 .6352941 .7058824 81
 1 404 614 429 397 399 0 412 396 434 83 3 433 .5019608 .6352941 .7058824 81 1 39
6 615 429 390 391 0 404 389 435 83 3 434 .5019608 .6352941 .7058824 81 1 389 616
 429 335 384 0 396 383 436 83 3 435 .5019608 .6352941 .7058824 81 1 383 617 429
 375 380 0 389 373 437 83 3 436 .5019608 .6352941 .7058824 81 1 373 618 429 370
 367 0 383 438 439 83 3 437 .5019608 .6352941 .7058824 81 1 438 619 429 374 440
 0 373 441 442 83 3 439 .5019608 .6352941 .7058824 14 374 305 438 ?443 370 444 3
9 40 -443 370 443 370 39 81 3 440 592 365 374 445 438 446 447 448 449 0 81 1 441
 620 429 443 446 0 438 450 451 83 3 442 .5019608 .6352941 .7058824 14 443 300 44
1 ?452 374 453 39 40 -452 374 452 374 39 81 3 446 591 365 443 454 441 455 440 45
6 457 0 81 1 450 621 429 452 455 0 441 458 459 83 3 451 .5019608 .6352941 .70588
24 14 452 295 450 ?460 443 461 39 40 -460 443 460 443 39 81 3 455 590 365 452 46
2 450 463 446 464 465 0 81 1 458 622 429 460 463 0 450 466 467 83 3 459 .5019608
 .6352941 .7058824 14 460 290 458 ?468 452 469 39 40 -468 452 468 452 39 81 3 46
3 589 365 460 470 458 471 455 472 473 0 81 1 466 623 429 468 447 0 458 474 475 8
3 3 467 .5019608 .6352941 .7058824 14 468 285 466 ?476 460 477 39 40 -476 460 47
6 460 39 81 3 447 593 365 468 478 466 440 366 479 480 0 81 1 474 624 429 476 366
 0 466 481 482 83 3 475 .5019608 .6352941 .7058824 14 476 280 474 ?483 468 484 3
9 40 -483 468 483 468 39 81 3 366 594 365 476 485 474 447 360 486 487 0 81 1 481
 625 429 483 471 0 474 488 489 83 3 482 .5019608 .6352941 .7058824 14 483 275 48
1 ?364 476 490 39 40 -364 476 364 476 39 81 3 471 588 365 483 491 481 492 463 49
3 494 0 81 1 488 626 429 364 492 0 481 363 495 83 3 489 .5019608 .6352941 .70588
24 14 364 164 488 ?51 483 496 39 40 -51 483 51 483 39 81 3 492 587 365 364 497 4
88 0 471 498 499 0 81 1 363 627 429 51 360 0 488 0 500 83 3 495 .5019608 .635294
1 .7058824 83 3 500 .5019608 .6352941 .7058824 81 1 497 343 208 364 0 492 501 49
1 502 82 1 498 3 82 1 499 695 81 1 501 342 208 239 0 0 503 497 504 81 1 491 344
 208 483 0 471 497 485 505 84 32 502 0eb9c1c4d8aff520618a788dcc3b7fb481 1 485 34
5 208 476 0 366 491 478 506 84 32 505 501b3abbd50737a410ce7583dc98bfac81 1 478 3
46 208 468 0 447 485 470 507 84 32 506 448914311c240c34283e6bde9aa3e32b81 1 470
 347 208 460 0 463 478 462 508 84 32 507 9ecdd4d1c95ddf94302f1bd9970c092b81 1 46
2 348 208 452 0 455 470 454 509 84 32 508 c352c8dd687b745b3f1975d33f2f4e7d81 1 4
54 349 208 443 0 446 462 445 510 84 32 509 8166d41e1b3e01f29a0a21926cabf4b781 1
 445 350 208 374 0 440 454 223 511 84 32 510 55077e1a23b77771a38dc7d6faead18b81
 1 223 507 208 203 0 0 445 276 512 84 32 511 b38b493153298db83463cde4174e602281
 1 276 508 208 273 0 0 223 513 514 84 32 512 5a84bdc85e1a25620bcd3af7eedef2fd81
 1 513 509 208 278 0 0 276 515 516 84 32 514 86ad88bc3e01be5d3f07126c906e991d16
 278 422 513 ?517 273 518 266 273 518 29 81 1 515 510 208 212 0 0 513 519 520 84
 32 516 a468b2ff9baddca249c6b51141f54d2d16 212 450 515 ?60 353 206 266 353 273 2
9 81 1 519 511 208 359 0 0 515 521 522 84 32 520 4834cf95b8763731bb6ca3244a06bff
816 359 402 519 ?523 333 524 216 333 524 29 81 1 521 512 208 524 0 0 519 525 526
 84 32 522 51598a2aa6ec23078da7ed1a8fb1f46b16 524 406 521 ?527 359 528 216 359 5
28 29 81 1 525 513 208 518 0 0 521 308 529 84 32 526 751da275a275123f3551193abd5
ac15116 518 426 525 ?530 278 342 266 278 342 29 81 1 308 514 208 306 0 0 525 311
 531 84 32 529 99b4f56cc5eb60f9306154f063bf5bd381 1 311 515 208 309 0 0 308 313
 532 84 32 531 847f798c4a0bd48a1e6058b9599f842a81 1 313 516 208 63 0 0 311 316 5
33 84 32 532 ba23b439e381186800bcdfa5487c60d881 1 316 517 208 314 0 0 313 319 53
4 84 32 533 dd269d2057407185804ee451562dfb5381 1 319 518 208 317 0 0 316 321 535
 84 32 534 e9ab2013b19708dd3ccc17d25f03e4dd81 1 321 519 208 320 0 0 319 322 536
 84 32 535 7b8914ce2c4ab69d378be1095aba7ed884 32 536 0511231ae3945326e514fdb8b69
8a48917 530 0 398 98 86 81 537 518 0 0 +16 342 430 337 ?538 518 348 266 518 348
 29 17 538 0 424 55 83 78 539 342 0 0 +15 424 474 0 538 50 0 17 55 0 424 527 538
 99 80 44 0 540 +17 83 0 424 538 527 81 98 320 0 539 +17 539 0 0 0 0 81 538 342
 0 530 -17 527 0 424 83 55 96 540 524 0 0 +17 98 0 398 541 530 96 83 320 0 542 -
15 398 479 0 98 390 0 17 541 0 398 86 98 93 542 528 0 0 +17 542 0 0 0 0 96 541 5
28 0 527 -16 528 410 543 ?541 524 347 216 524 347 29 81 1 543 522 208 528 0 0 54
 332 544 16 347 414 545 ?546 528 200 216 528 200 29 81 1 545 525 208 347 0 0 547
 343 548 17 546 0 406 89 95 90 549 347 0 0 +15 406 454 0 517 397 0 17 89 0 406 5
17 546 87 92 314 0 550 +17 95 0 406 546 517 93 86 317 0 549 +17 549 0 0 0 0 93 5
46 347 0 541 -17 517 0 406 95 89 84 550 278 0 0 +17 86 0 398 530 541 84 95 317 0
 537 -17 537 0 0 0 0 84 530 518 0 517 -17 550 0 0 0 0 87 517 278 0 277 -17 277 0
 193 92 165 87 551 273 0 0 +17 92 0 193 191 277 90 89 314 0 199 -17 165 0 193 27
7 194 163 162 206 0 551 +17 551 0 0 0 0 163 277 273 0 0 -17 162 0 0 0 0 160 165
 206 0 194 -17 199 0 0 0 0 90 191 200 0 546 -81 1 547 524 208 352 0 0 332 545 55
2 81 1 343 526 208 331 0 0 545 337 553 84 32 548 de5734a87648c2c14d03305df7c474d
816 331 442 343 ?326 352 353 266 352 353 29 84 32 553 6e26a3b49aeec1f908fb78603b
b77a8016 352 438 547 ?554 348 331 266 348 331 29 17 554 0 376 106 77 66 555 352
 0 0 +15 376 459 0 106 370 0 17 106 0 376 358 554 104 72 309 0 556 -17 77 0 376
 554 358 73 103 306 0 555 +17 555 0 0 0 0 73 554 352 0 351 -17 351 0 413 103 80
 73 557 348 0 0 +15 413 489 0 80 405 0 17 103 0 413 523 351 101 77 306 0 558 -17
 80 0 413 351 523 78 55 44 0 557 -17 557 0 0 0 0 78 351 348 0 538 -17 523 0 413
 80 103 99 558 359 0 0 +17 558 0 0 0 0 101 523 359 0 358 -17 358 0 376 77 106 10
1 556 333 0 0 +17 556 0 0 0 0 104 358 333 0 325 -17 72 0 324 326 325 66 106 309
 0 330 +17 330 0 0 0 0 66 326 331 0 554 -81 1 332 523 208 329 0 0 543 547 559 84
 32 552 0e0cb316f4648c97a1823692797dff9384 32 559 70ef6ab8bf66b05e2ede1b4e565216
dd81 1 54 521 208 44 0 0 322 543 560 84 32 544 d40527f69387838507ee02a0d2b787eb8
4 32 560 73b1bbe042765cdc27aed14c1620c69317 540 0 0 0 0 99 527 524 0 523 -17 60
 0 59 271 57 166 64 212 0 561 +15 59 464 0 57 375 0 17 271 0 59 155 60 156 561 2
65 0 0 +17 64 0 0 0 0 45 60 212 0 68 -17 561 0 0 0 0 166 271 265 0 0 -17 68 0 67
 62 65 45 71 353 0 0 +17 71 0 0 0 0 58 68 353 0 326 -17 155 0 59 188 271 153 158
 202 0 562 -17 188 0 59 61 155 186 562 231 0 563 +17 158 0 496 170 230 156 155 2
02 0 564 +17 562 0 0 0 0 153 188 231 0 230 -16 231 158 565 ?188 225 232 220 225
 225 29 17 230 0 496 158 185 153 566 225 0 0 +15 496 303 0 113 364 0 17 185 0 49
6 230 113 183 567 239 0 566 +17 566 0 0 0 0 183 230 225 0 0 -17 113 0 496 185 26
2 111 152 303 0 567 -17 567 0 0 0 0 111 185 239 0 568 -16 239 269 501 ?185 569 2
40 226 569 232 29 16 569 265 570 ?568 571 239 226 571 239 29 81 1 570 340 208 56
9 0 0 572 503 573 17 568 0 444 152 116 111 574 569 0 0 +16 571 261 575 ?576 577
 569 226 577 569 29 81 1 575 337 208 571 0 0 578 579 580 17 576 0 461 149 119 11
4 581 571 0 0 +16 577 257 582 ?583 584 571 226 584 571 29 81 1 582 335 208 577 0
 0 585 578 586 17 583 0 453 146 122 117 587 577 0 0 +16 584 253 579 ?588 589 577
 226 589 577 29 81 1 579 338 208 584 0 0 575 572 590 17 588 0 490 143 125 120 59
1 584 0 0 +16 589 249 592 ?593 238 584 226 238 584 29 81 1 592 327 208 589 0 0 2
96 594 595 17 593 0 484 140 128 123 596 589 0 0 +16 238 245 597 ?598 232 589 226
 232 589 29 81 1 597 324 208 238 0 0 599 600 601 17 598 0 477 137 131 126 602 23
8 0 0 +15 477 288 0 131 468 0 17 137 0 477 603 598 135 128 291 0 604 +17 131 0 4
77 598 603 129 134 294 0 602 -17 602 0 0 0 0 129 598 238 0 237 -17 237 0 469 134
 182 129 605 232 0 0 +15 469 51 0 237 460 0 17 134 0 469 173 237 132 131 294 0 6
06 +17 182 0 469 237 179 180 607 240 0 605 +17 605 0 0 0 0 180 237 232 0 0 -17 1
79 0 469 182 176 177 608 246 0 607 +17 607 0 0 0 0 177 182 240 0 0 -17 176 0 469
 179 173 174 609 251 0 608 +17 608 0 0 0 0 174 179 246 0 0 -17 173 0 469 176 134
 171 606 264 0 609 +17 609 0 0 0 0 171 176 251 0 0 -17 606 0 0 0 0 132 173 264 0
 603 -16 264 241 503 ?173 610 265 252 610 257 29 81 1 503 341 208 264 0 0 570 50
1 611 16 610 237 572 ?603 612 264 252 612 264 29 81 1 572 339 208 610 0 0 579 57
0 613 17 603 0 477 131 137 132 604 610 0 0 +16 612 233 578 ?614 615 610 252 615
 610 29 81 1 578 336 208 612 0 0 582 575 616 17 614 0 484 128 140 135 617 612 0
 0 +16 615 229 585 ?618 619 612 252 619 612 29 81 1 585 334 208 615 0 0 305 582
 620 17 618 0 490 125 143 138 621 615 0 0 +16 619 225 594 ?622 623 615 252 623 6
15 29 81 1 594 328 208 619 0 0 592 290 624 17 622 0 453 122 146 141 625 619 0 0
 +16 623 221 600 ?626 263 619 252 263 619 29 81 1 600 325 208 623 0 0 597 296 62
7 17 626 0 461 119 149 144 628 623 0 0 +16 263 217 599 ?629 257 623 252 257 623
 29 81 1 599 323 208 263 0 0 287 597 630 17 629 0 444 116 152 147 631 263 0 0 +1
5 444 293 0 568 374 0 17 116 0 444 568 629 114 149 297 0 574 -17 152 0 444 629 5
68 150 113 303 0 631 +17 631 0 0 0 0 150 629 263 0 262 -17 262 0 496 113 170 150
 632 257 0 0 +17 170 0 496 262 158 168 564 272 0 632 +17 632 0 0 0 0 168 262 257
 0 0 -17 564 0 0 0 0 156 170 272 0 271 -16 272 154 633 ?170 265 273 258 265 265
 29 81 1 633 175 208 272 0 0 270 284 634 81 1 270 174 208 265 0 0 210 633 635 81
 1 284 176 208 202 0 0 633 565 636 84 32 634 bb02d59dd9ef55ecf4dcdcc09cc5a8f781
 1 565 177 208 231 0 0 284 236 637 84 32 636 48a2bb4ccb648e69a231bf2e50295a4e81
 1 236 320 208 232 0 0 565 261 638 84 32 637 28bbb36aa8460d017d13d27d76dae1fb81
 1 261 321 208 257 0 0 236 287 639 84 32 638 f5f618603038371aa7d8e26bbe03d89781
 1 287 322 208 285 0 0 261 599 640 84 32 639 5f3907b02b7fb52c2f4610f7ca017ff484
 32 640 44494d30b9fccd41711818c076c0a77a81 1 210 173 208 225 0 0 205 270 641 84
 32 635 85103edfc3cb78d8f0057de5d0e1c08584 32 641 660bef0897c505058663cc18b577ed
5617 149 0 461 626 576 147 116 297 0 628 +17 574 0 0 0 0 114 568 569 0 576 -15 4
61 298 0 119 452 0 17 628 0 0 0 0 147 626 623 0 629 -17 119 0 461 576 626 117 14
6 300 0 581 -17 146 0 453 622 583 144 119 300 0 625 +17 581 0 0 0 0 117 576 571
 0 583 -15 453 273 0 583 443 0 17 625 0 0 0 0 144 622 619 0 626 -84 32 630 42545
44180b7b53d76de08b28163440281 1 296 326 208 294 0 0 600 592 642 84 32 627 0f6857
efd2402424c7c5cee11ba3f88684 32 642 65503880ab7302ade7537b22f795968117 122 0 453
 583 622 120 143 285 0 587 -17 143 0 490 618 588 141 122 285 0 621 +17 587 0 0 0
 0 120 583 577 0 588 -15 490 278 0 125 483 0 17 621 0 0 0 0 141 618 615 0 622 -1
7 125 0 490 588 618 123 140 288 0 591 -17 140 0 484 614 593 138 125 288 0 617 +1
7 591 0 0 0 0 123 588 584 0 593 -15 484 283 0 128 476 0 17 617 0 0 0 0 138 614 6
12 0 618 -17 128 0 484 593 614 126 137 291 0 596 -17 596 0 0 0 0 126 593 589 0 5
98 -81 1 290 329 208 288 0 0 594 293 643 84 32 624 e6c16e9003eff408a16e52328a0d6
ae581 1 293 330 208 291 0 0 290 299 644 84 32 643 ca353e518ce46551da2a8207557881
5081 1 299 331 208 297 0 0 293 302 645 84 32 644 28de31d29012690dd438885992f69ec
581 1 302 332 208 300 0 0 299 305 646 84 32 645 cbce6d934afd867d8e3769cc5e2fa7e8
81 1 305 333 208 303 0 0 302 585 647 84 32 646 c9571481a9d3dafe1acf9690bb9d20558
4 32 647 88e9657033755ebecd5a51d1ad21972a84 32 620 3e3141547a0a6d00075c85cb4fd73
49a84 32 616 918e17e8568d4284b202793a490c716717 604 0 0 0 0 135 603 610 0 614 -8
4 32 613 a666e3649086fea710beb9c33294bff884 32 611 19e1dc35cf8231cf6c72c3f615027
fc684 32 601 946f5fa87a57c2f523d8220c91991a4984 32 595 e85bcda42c277e6d6c1a14cae
efa959784 32 590 19d24cccd9719e18a3c793f98bd0da9884 32 586 01865d65a5d4492b530a9
e3b01c5b6a784 32 580 1f52f0b93364ffe46ce0e4363c38db6c84 32 573 a55209645a7b9ba0d
2602dc2b5fde51317 61 0 59 57 188 109 563 203 0 0 +17 563 0 0 0 0 186 61 203 0 0
 -84 32 504 cda8219415bfca5f9930a834796bd4fd82 1 493 3 82 1 494 696 82 1 486 3 8
2 1 487 702 82 1 479 3 82 1 480 701 82 1 472 3 82 1 473 697 82 1 464 3 82 1 465
 698 82 1 456 3 82 1 457 699 82 1 448 3 82 1 449 700 79 255 15 431 SDL/TYSA_COLO
UR79 27 428 MONIKER/MONIKER_DATA_ATTRIB82 1 420 3 82 1 421 741 82 1 415 3 82 1 4
16 740 82 1 408 3 82 1 409 739 82 1 400 3 82 1 401 738 82 1 392 3 82 1 393 737 8
2 1 385 3 82 1 386 736 82 1 378 3 82 1 379 734 82 1 368 3 82 1 369 733 84 32 344
 b39feacbe3206a62989138d44fd7cd3179 15 341 UGS/ObjectState84 32 323 8ff5d3bb3c8a
cefdf2b3af5375bcdfa581 1 256 109 208 251 0 0 250 209 648 81 1 250 108 208 246 0
 0 245 256 649 81 1 209 113 208 206 0 0 256 205 650 84 32 648 b65f380b3fcdf313cf
84de818af3c01184 32 650 a073427408f5efd757bf998a4abdb08b81 1 245 107 208 240 0 0
 201 250 651 84 32 649 85b99d81431dc92c46b026cf64ab7c7781 1 201 103 208 196 0 0
 0 245 652 84 32 651 70359e2598caf382ce3766c6f2049f8684 32 652 616541f280134d018
faf2d93f3998d6384 32 211 a302bfec81f9afdd81b3cfcf10ce841c74 4 CI16 index_map_off
set0 0 1 dCCZ20 49 9 0 0 417 653 654 655 414 656 47 363 37 0 0 0 0 0 0 0 0 0 0 0
 81 2 653 506 657 29 0 654 0 0 658 659 81 1 654 584 660 29 653 655 0 0 661 81 1
 655 586 662 29 654 663 0 0 664 81 3 656 609 665 29 666 47 666 0 667 668 669 81
 2 47 610 670 29 656 37 0 0 671 0 80 2 670 665 672 9000 2 2 2 2 3 6 0 0 0 FFTFFF